ModifiedIEEE14BusSystem.m
function mpc = ModifiedIEEE14BusSystem
%MODIFIEDIEEE14BUSSYSTEM

%% MATPOWER Case Format : Version 2
mpc.version = '2';

%%-----  Power Flow Data  -----%%
%% system MVA base
mpc.baseMVA = 100;

%% bus data
%	bus_i	type	Pd	Qd	Gs	Bs	area	Vm	Va	baseKV	zone	Vmax	Vmin
mpc.bus = [
	1	3	0	0	0	0	1	1.06	0	0	1	1.06	0.94;
	2	2	0	0	0	0	1	1.045	-4.98	0	1	1.06	0.94;
	3	2	0	0	0	0	1	1.01	-12.72	0	1	1.06	0.94;
	4	1	0	0	0	0	1	1.019	-10.33	0	1	1.06	0.94;
	5	1	0	0	0	0	1	1.02	-8.78	0	1	1.06	0.94;
	6	2	0	0	0	0	1	1.07	-14.22	0	1	1.06	0.94;
	7	1	0	0	0	0	1	1.062	-13.37	0	1	1.06	0.94;
	8	2	0	0	0	0	1	1.09	-13.36	0	1	1.06	0.94;
	9	1	0	0	0	19	1	1.056	-14.94	0	1	1.06	0.94;
	10	1	0	0	0	0	1	1.051	-15.1	0	1	1.06	0.94;
	11	1	0	0	0	0	1	1.057	-14.79	0	1	1.06	0.94;
	12	1	0	0	0	0	1	1.055	-15.07	0	1	1.06	0.94;
	13	1	0	0	0	0	1	1.05	-15.16	0	1	1.06	0.94;
	14	1	0	0	0	0	1	1.036	-16.04	0	1	1.06	0.94;
];

%% generator data
%	bus	Pg	Qg	Qmax	Qmin	Vg	mBase	status	Pmax	Pmin	Pc1	Pc2	Qc1min	Qc1max	Qc2min	Qc2max	ramp_agc	ramp_10	ramp_30	ramp_q	apf
mpc.gen = [
	1	232.4	-16.9	10	0	1.06	100	1	332.4	0	0	0	0	0	0	0	0	166.2	166.2	0	0;
	2	40	42.4	50	-40	1.045	100	1	140	0	0	0	0	0	0	0	0	70	70	0	0;
	3	0	23.4	40	0	1.01	100	1	100	0	0	0	0	0	0	0	0	50	50	0	0;
	6	0	12.2	24	-6	1.07	100	1	100	0	0	0	0	0	0	0	0	50	50	0	0;
	8	0	17.4	24	-6	1.09	100	1	100	0	0	0	0	0	0	0	0	50	50	0	0;
	2	-21.7	-12.7	0	-12.7	1.045	100	1	0	-21.7	0	0	0	0	0	0	Inf	Inf	Inf	Inf	0;
	3	-94.2	-19	0	-19	1.01	100	1	0	-94.2	0	0	0	0	0	0	Inf	Inf	Inf	Inf	0;
	4	-47.8	3.9	3.9	0	1.019	100	1	0	-47.8	0	0	0	0	0	0	Inf	Inf	Inf	Inf	0;
	5	-7.6	-1.6	0	-1.6	1.02	100	1	0	-7.6	0	0	0	0	0	0	Inf	Inf	Inf	Inf	0;
	6	-11.2	-7.5	0	-7.5	1.07	100	1	0	-11.2	0	0	0	0	0	0	Inf	Inf	Inf	Inf	0;
	9	-29.5	-16.6	0	-16.6	1.056	100	1	0	-29.5	0	0	0	0	0	0	Inf	Inf	Inf	Inf	0;
	10	-9	-5.8	0	-5.8	1.051	100	1	0	-9	0	0	0	0	0	0	Inf	Inf	Inf	Inf	0;
	11	-3.5	-1.8	0	-1.8	1.057	100	1	0	-3.5	0	0	0	0	0	0	Inf	Inf	Inf	Inf	0;
	12	-6.1	-1.6	0	-1.6	1.055	100	1	0	-6.1	0	0	0	0	0	0	Inf	Inf	Inf	Inf	0;
	13	-13.5	-5.8	0	-5.8	1.05	100	1	0	-13.5	0	0	0	0	0	0	Inf	Inf	Inf	Inf	0;
	14	-14.9	-5	0	-5	1.036	100	1	0	-14.9	0	0	0	0	0	0	Inf	Inf	Inf	Inf	0;
	4	0	0	50	-50	1	100	1	100	0	0	0	0	0	0	0	0	200	200	0	0;
	5	0	0	50	-50	1	100	1	100	0	0	0	0	0	0	0	0	200	200	0	0;
	13	0	0	50	-50	1	100	1	100	0	0	0	0	0	0	0	0	200	200	0	0;
	14	0	0	50	-50	1	100	1	100	0	0	0	0	0	0	0	0	200	200	0	0;
];

%% branch data
%	fbus	tbus	r	x	b	rateA	rateB	rateC	ratio	angle	status	angmin	angmax
mpc.branch = [
	1	2	0.01938	0.05917	0.0528	100	0	0	0	0	1	-360	360;
	1	5	0.05403	0.22304	0.0492	100	0	0	0	0	1	-360	360;
	2	3	0.04699	0.19797	0.0438	100	0	0	0	0	1	-360	360;
	2	4	0.05811	0.17632	0.034	100	0	0	0	0	1	-360	360;
	2	5	0.05695	0.17388	0.0346	100	0	0	0	0	1	-360	360;
	3	4	0.06701	0.17103	0.0128	100	0	0	0	0	1	-360	360;
	4	5	0.01335	0.04211	0	100	0	0	0	0	1	-360	360;
	4	7	0	0.20912	0	100	0	0	0.978	0	1	-360	360;
	4	9	0	0.55618	0	100	0	0	0.969	0	1	-360	360;
	5	6	0	0.25202	0	100	0	0	0.932	0	1	-360	360;
	6	11	0.09498	0.1989	0	100	0	0	0	0	1	-360	360;
	6	12	0.12291	0.25581	0	100	0	0	0	0	1	-360	360;
	6	13	0.06615	0.13027	0	100	0	0	0	0	1	-360	360;
	7	8	0	0.17615	0	100	0	0	0	0	1	-360	360;
	7	9	0	0.11001	0	100	0	0	0	0	1	-360	360;
	9	10	0.03181	0.0845	0	100	0	0	0	0	1	-360	360;
	9	14	0.12711	0.27038	0	100	0	0	0	0	1	-360	360;
	10	11	0.08205	0.19207	0	100	0	0	0	0	1	-360	360;
	12	13	0.22092	0.19988	0	100	0	0	0	0	1	-360	360;
	13	14	0.17093	0.34802	0	100	0	0	0	0	1	-360	360;
];

%%-----  OPF Data  -----%%
%% area data
%	area	refbus
mpc.areas = [
	1	1;
];

%% generator cost data
%	1	startup	shutdown	n	x1	y1	...	xn	yn
%	2	startup	shutdown	n	c(n-1)	...	c0
mpc.gencost = [
	2	200	50	3	0.0430292599	20	0;
	2	100	25	3	0.25	20	0;
	2	80	20	3	0.01	40	0;
	2	80	20	3	0.01	40	0;
	2	30	8	3	0.01	40	0;
	2	0	0	2	5000	0	0;
	2	0	0	2	5000	0	0;
	2	0	0	2	5000	0	0;
	2	0	0	2	5000	0	0;
	2	0	0	2	5000	0	0;
	2	0	0	2	5000	0	0;
	2	0	0	2	5000	0	0;
	2	0	0	2	5000	0	0;
	2	0	0	2	5000	0	0;
	2	0	0	2	5000	0	0;
	2	0	0	2	5000	0	0;
	2	0	0	2	0	0	0;
	2	0	0	2	0	0	0;
	2	0	0	2	0	0	0;
	2	0	0	2	0	0	0;
];

%% bus names
mpc.bus_name = {
	'Bus 1     HV';
	'Bus 2     HV';
	'Bus 3     HV';
	'Bus 4     HV';
	'Bus 5     HV';
	'Bus 6     LV';
	'Bus 7     ZV';
	'Bus 8     TV';
	'Bus 9     LV';
	'Bus 10    LV';
	'Bus 11    LV';
	'Bus 12    LV';
	'Bus 13    LV';
	'Bus 14    LV';
};
